/*--------------------------------*- C++ -*----------------------------------*\
| =========                 |                                                 |
| \\      /  F ield         | OpenFOAM: The Open Source CFD Toolbox           |
|  \\    /   O peration     | Version:  v2006                                 |
|   \\  /    A nd           | Website:  www.openfoam.com                      |
|    \\/     M anipulation  |                                                 |
\*---------------------------------------------------------------------------*/
FoamFile
{
    version     2.0;
    format      ascii;
    class       polyBoundaryMesh;
    location    "constant/polyMesh";
    object      boundary;
}
// * * * * * * * * * * * * * * * * * * * * * * * * * * * * * * * * * * * * * //

5
(
    left
    {
        type            patch;
        nFaces          100;
        startFace       39700;
    }
    right
    {
        type            patch;
        nFaces          100;
        startFace       39800;
    }
    top
    {
        type            patch;
        nFaces          200;
        startFace       39900;
    }
    bottom
    {
        type            wall;
        inGroups        1(wall);
        nFaces          200;
        startFace       40100;
    }
    empty
    {
        type            empty;
        inGroups        1(empty);
        nFaces          40000;
        startFace       40300;
    }
)

// ************************************************************************* //
