/*--------------------------------*- C++ -*----------------------------------*\
| =========                 |                                                 |
| \\      /  F ield         | OpenFOAM: The Open Source CFD Toolbox           |
|  \\    /   O peration     | Version:  v2006                                 |
|   \\  /    A nd           | Website:  www.openfoam.com                      |
|    \\/     M anipulation  |                                                 |
\*---------------------------------------------------------------------------*/
FoamFile
{
    version     2.0;
    format      ascii;
    class       polyBoundaryMesh;
    location    "constant/polyMesh";
    object      boundary;
}
// * * * * * * * * * * * * * * * * * * * * * * * * * * * * * * * * * * * * * //

3
(
    movingWall
    {
        type            wall;
        inGroups        1(wall);
        nFaces          50;
        startFace       4900;
    }
    fixedWalls
    {
        type            wall;
        inGroups        1(wall);
        nFaces          150;
        startFace       4950;
    }
    frontAndBack
    {
        type            empty;
        inGroups        1(empty);
        nFaces          5000;
        startFace       5100;
    }
)

// ************************************************************************* //
