/*--------------------------------*- C++ -*----------------------------------*\
| =========                 |                                                 |
| \\      /  F ield         | OpenFOAM: The Open Source CFD Toolbox           |
|  \\    /   O peration     | Version:  v2006                                 |
|   \\  /    A nd           | Website:  www.openfoam.com                      |
|    \\/     M anipulation  |                                                 |
\*---------------------------------------------------------------------------*/
FoamFile
{
    version     2.0;
    format      ascii;
    class       polyBoundaryMesh;
    location    "constant/polyMesh";
    object      boundary;
}
// * * * * * * * * * * * * * * * * * * * * * * * * * * * * * * * * * * * * * //

5
(
    left
    {
        type            wall;
        inGroups        1(wall);
        nFaces          150;
        startFace       99450;
    }
    right
    {
        type            wall;
        inGroups        1(wall);
        nFaces          150;
        startFace       99600;
    }
    top
    {
        type            patch;
        nFaces          350;
        startFace       99750;
    }
    bottom
    {
        type            wall;
        inGroups        1(wall);
        nFaces          450;
        startFace       100100;
    }
    defaultFaces
    {
        type            empty;
        inGroups        1(empty);
        nFaces          100000;
        startFace       100550;
    }
)

// ************************************************************************* //
