/*--------------------------------*- C++ -*----------------------------------*\
| =========                 |                                                 |
| \\      /  F ield         | OpenFOAM: The Open Source CFD Toolbox           |
|  \\    /   O peration     | Version:  v2006                                 |
|   \\  /    A nd           | Website:  www.openfoam.com                      |
|    \\/     M anipulation  |                                                 |
\*---------------------------------------------------------------------------*/
FoamFile
{
    version     2.0;
    format      ascii;
    class       dictionary;
    object      blockMeshDict;
}
// * * * * * * * * * * * * * * * * * * * * * * * * * * * * * * * * * * * * * //

scale   1;

vertices
(
    (-2.5 -0.5 -1) //0
    (3.5 -0.5 -1)  //1
    (3.5 1.25 -1)   //2
    (-2.5 1.25 -1)  //3
    (-2.5 -0.5 1)  //4
    (3.5 -0.5 1)   //5
    (3.5 1.25 1)    //6
    (-2.5 1.25 1)   //7
);

blocks
(
    hex (0 1 2 3 4 5 6 7) (250 75 1) simpleGrading (1 1 1)
);

edges
(
);

boundary
(
    left
    {
        type patch;
        faces
        (
            (7 3 0 4)
        );
    }

    right
    {
        type patch;
        faces
        (
            (5 1 2 6)
        );
    }

    top
    {
        type patch;
        faces
        (
            (7 6 2 3)
        );
    }

    bottom
    {
        type wall;
        faces
        (
            (0 1 5 4)   
        );
    }
    empty
    {
        type empty;
        faces
        (
            (0 3 2 1)
            (4 5 6 7)
        );
    }
);

mergePatchPairs
(
);

// ************************************************************************* //
