/*--------------------------------*- C++ -*----------------------------------*\
| =========                 |                                                 |
| \\      /  F ield         | OpenFOAM: The Open Source CFD Toolbox           |
|  \\    /   O peration     | Version:  v2006                                 |
|   \\  /    A nd           | Website:  www.openfoam.com                      |
|    \\/     M anipulation  |                                                 |
\*---------------------------------------------------------------------------*/
FoamFile
{
    version     2.0;
    format      ascii;
    class       dictionary;
    object      blockMeshDict;
}
// * * * * * * * * * * * * * * * * * * * * * * * * * * * * * * * * * * * * * //

scale   1;

vertices
(
    (-5 -1 -1) //0
    (10 -1 -1)  //1
    (10 1 -1)   //2
    (-5 1 -1)  //3
    (-5 -1 1)  //4
    (10 -1 1)   //5
    (10 1 1)    //6
    (-5 1 1)   //7
);

blocks
(
    hex (0 1 2 3 4 5 6 7) (350 1 1) simpleGrading (1 1 1)
);

edges
(
);

boundary
(
    right
    {
        type patch;
        faces
        (
            (1 2 6 5)
        );
    }

    left
    {
        type patch;
        faces
        (
            (0 4 7 3)
        );
    }

    top
    {
        type wall;
        faces
        (
            (3 7 6 2)
        );
    }

    bottom
    {
        type wall;
        faces
        (
            (0 1 5 4)   
        );
    }
    empty
    {
        type empty;
        faces
        (
            (5 6 7 4)
            (0 3 2 1)
        );
    }
);

mergePatchPairs
(
);

// ************************************************************************* //
