/*--------------------------------*- C++ -*----------------------------------*\
| =========                 |                                                 |
| \\      /  F ield         | OpenFOAM: The Open Source CFD Toolbox           |
|  \\    /   O peration     | Version:  v2006                                 |
|   \\  /    A nd           | Website:  www.openfoam.com                      |
|    \\/     M anipulation  |                                                 |
\*---------------------------------------------------------------------------*/
FoamFile
{
    version     2.0;
    format      ascii;
    class       polyBoundaryMesh;
    location    "constant/polyMesh";
    object      boundary;
}
// * * * * * * * * * * * * * * * * * * * * * * * * * * * * * * * * * * * * * //

5
(
    right
    {
        type            patch;
        nFaces          1;
        startFace       349;
    }
    left
    {
        type            patch;
        nFaces          1;
        startFace       350;
    }
    top
    {
        type            wall;
        inGroups        1(wall);
        nFaces          350;
        startFace       351;
    }
    bottom
    {
        type            wall;
        inGroups        1(wall);
        nFaces          350;
        startFace       701;
    }
    empty
    {
        type            empty;
        inGroups        1(empty);
        nFaces          700;
        startFace       1051;
    }
)

// ************************************************************************* //
